Circuit: * D:\KiCAD 6.0\KiCad6.0 PROJECTS\electrolysisMachine\voltage-controlled-current-sink\voltage-controlled-current-virtual-ground.asc

Limiting rise time of source v3 to 0.0001
Limiting fall time of source v3 to 0.0001
WARNING: Node N007 is floating.
WARNING: Node N009 is floating.
WARNING: Node N012 is floating.

WARNING: Less than two connections to node N002.  This node is used by D1.
WARNING: Less than two connections to node N001.  This node is used by V3.
WARNING: Less than two connections to node NC_01.  This node is used by R7.
Direct Newton iteration failed to find .op point.  (Use ".option noopiter" to skip.)
Starting Gmin stepping
Gmin = 10
Gmin = 1.07374
Gmin = 0.115292
Gmin = 0.0123794
Gmin = 0.00132923
Gmin = 0.000142725
Gmin = 1.5325e-005
Gmin = 1.6455e-006
Gmin = 1.76685e-007
Gmin = 1.89714e-008
vernier = 0.5
vernier = 0.25
vernier = 0.125
Gmin = 4.97323e-009
vernier = 0.0625
vernier = 0.03125
vernier = 0.015625
vernier = 0.0078125
vernier = 0.00390625
vernier = 0.00195313
vernier = 0.000976563
vernier = 0.000488281
Gmin = 0
Gmin stepping failed

Starting source stepping with srcstepmethod=0
Source Step = 3.0303%
Source Step = 33.3333%
Source Step = 63.6364%
Source Step = 93.9394%
Source stepping succeeded in finding the operating point.


Date: Sun Jun 02 23:39:10 2024
Total elapsed time: 0.113 seconds.

tnom = 27
temp = 27
method = trap
totiter = 2380
traniter = 0
tranpoints = 0
accept = 0
rejected = 0
matrix size = 25
fillins = 5
solver = Normal
Matrix Compiler1:      75 opcodes  0.2/0.3/[0.1]
Matrix Compiler2: 2.02 KB object code size  0.1/0.2/[0.1]

