LTspice 24.0.12 for Windows
Circuit: * D:\KiCAD 6.0\KiCad6.0 PROJECTS\electrolysisMachine\voltage-controlled-current-sink\charge-pump-and-VCCS.asc
Start Time: Thu Aug  8 00:19:20 2024
Warning: Multiple definitions of model "2scr375p" Type: BJT
Warning: Multiple definitions of model "bc857b" Type: BJT
Warning: Multiple definitions of model "bc847c" Type: BJT
Warning: Multiple definitions of model "bc847b" Type: BJT
solver = Normal
Maximum thread count: 8
tnom = 27
temp = 27
method = modified trap
Limiting rise time of source v3 to 0.0001
Limiting fall time of source v3 to 0.0001
WARNING: Node N006 is floating.

WARNING: Less than two connections to node n007.  This node is used by v2.
WARNING: Less than two connections to node n003.  This node is used by d9.
Direct Newton iteration for .op point succeeded.
Heightened Def Con from 0.001601 to 0.001601
Heightened Def Con from 0.001601 to 0.001601
Heightened Def Con from 0.002651 to 0.002651
Heightened Def Con from 0.003801 ++++++++++++++++++++++++to 0.003801
Heightened Def Con from 0.003801 to 0.003801
Heightened Def Con from 0.003851 to 0.003851
Heightened Def Con from 0.007576 to 0.007576
Heightened Def Con from 0.007601 +++++++++++++++++++++++++to 0.007601
Heightened Def Con from 0.009201 ++++++++++++++++++to 0.009201
Heightened Def Con from 0.009401 to 0.009401
Total elapsed time: 4.127 seconds.

