LTspice 24.0.12 for Windows
Circuit: * D:\KiCAD 6.0\KiCad6.0 PROJECTS\electrolysisMachine\voltage-controlled-current-sink\charge-pump-and-VCCS.asc
Start Time: Sat Jun  8 20:18:13 2024
solver = Normal
Maximum thread count: 8
tnom = 27
temp = 27
method = modified trap
Limiting rise time of source v3 to 0.0001
Limiting fall time of source v3 to 0.0001
WARNING: Less than two connections to node n001.  This node is used by v2.
Direct Newton iteration for .op point succeeded.
Heightened Def Con from 0.7061 to 0.7061
Heightened Def Con from 0.7712 to 0.7712
Heightened Def Con from 0.8412 to 0.8412
Heightened Def Con from 0.9812 to 0.9812
Total elapsed time: 83.197 seconds.

