LTspice 24.0.12 for Windows
Circuit: * D:\KiCAD 6.0\KiCad6.0 PROJECTS\electrolysisMachine\voltage-controlled-current-sink\Draft1.asc
Start Time: Sun Sep  1 23:06:15 2024
solver = Normal
Maximum thread count: 8
tnom = 27
temp = 27
method = modified trap
.OP point found by inspection.
Total elapsed time: 0.172 seconds.

