Circuit: * D:\KiCAD 6.0\KiCad6.0 PROJECTS\electrolysisMachine\voltage-controlled-current-sink\voltage-controlled-current-source.asc

Error on line 13 : d1 vsupply n006 1n4007
	 Unable to find definition of model "1n4007"
Error on line 14 : d2 n006 vboost 1n4007
	 Unable to find definition of model "1n4007"
Error on line 1789 : step param r3 list 0r 1 10 100 1k 10k 100k 1000k 10000k
	 Unable to find definition of model "1"
	
	*  Unknown parameter "100"
Limiting rise time of source v3 to 0.0001
Limiting fall time of source v3 to 0.0001
WARNING: Node R3 is floating.
WARNING: Node LIST is floating.
WARNING: Node 0R is floating.

WARNING: Less than two connections to node N001.  This node is used by V2.
WARNING: Less than two connections to node PARAM.  This node is used by STEP.
WARNING: Less than two connections to node R3.  This node is used by STEP.
WARNING: Less than two connections to node LIST.  This node is used by STEP.
WARNING: Less than two connections to node 0R.  This node is used by STEP.
Direct Newton iteration for .op point succeeded.
Heightened Def Con from 0.0254898 to 0.0254898
Heightened Def Con from 0.027351 to 0.027351
Heightened Def Con from 0.0292721 to 0.0292721
Heightened Def Con from 0.0295485 to 0.0295485
Heightened Def Con from 0.0388224 to 0.0388224
Heightened Def Con from 0.0392975 to 0.0392975
Heightened Def Con from 0.0396139 to 0.0396139
Heightened Def Con from 0.0400112 to 0.0400112
Heightened Def Con from 0.0402485 to 0.0402485
Heightened Def Con from 0.0407242 to 0.0407242
Heightened Def Con from 0.0408832 to 0.0408832
Heightened Def Con from 0.0411202 to 0.0411202
Heightened Def Con from 0.0414375 to 0.0414375
Heightened Def Con from 0.0415165 to 0.0415165
Heightened Def Con from 0.0419732 to 0.0419732
Heightened Def Con from 0.0426657 to 0.0426657
Heightened Def Con from 0.0431426 to 0.0431426
Heightened Def Con from 0.0438964 to 0.0438964
Heightened Def Con from 0.0444327 to 0.0444327
Heightened Def Con from 0.0458001 to 0.0458001
Heightened Def Con from 0.0600151 to 0.0600151
Heightened Def Con from 0.0636634 to 0.0636634
Heightened Def Con from 0.0708021 to 0.0708021
Heightened Def Con from 0.0907758 to 0.0907758
Heightened Def Con from 0.108361 to 0.108361
Heightened Def Con from 0.131602 to 0.131602
Heightened Def Con from 0.144957 to 0.144957
Heightened Def Con from 0.147685 to 0.147685
Heightened Def Con from 0.149586 to 0.149586
Heightened Def Con from 0.164599 to 0.164599
Heightened Def Con from 0.168356 to 0.168356
Heightened Def Con from 0.170295 to 0.170295
Heightened Def Con from 0.175328 to 0.175328
Heightened Def Con from 0.188044 to 0.188044
Heightened Def Con from 0.217509 to 0.217509
Heightened Def Con from 0.221981 to 0.221981
Heightened Def Con from 0.228121 to 0.228121
Heightened Def Con from 0.230576 to 0.230576
Heightened Def Con from 0.232634 to 0.232634
Heightened Def Con from 0.256268 to 0.256268
Heightened Def Con from 0.262921 to 0.262921
Heightened Def Con from 0.279804 to 0.279804
Heightened Def Con from 0.285271 to 0.285271
Heightened Def Con from 0.290144 to 0.290144
Heightened Def Con from 0.296988 to 0.296988
Heightened Def Con from 0.307288 to 0.307288
Heightened Def Con from 0.312115 to 0.312115
Heightened Def Con from 0.327611 to 0.327611
Heightened Def Con from 0.331732 to 0.331732
Heightened Def Con from 0.331931 to 0.331931
Heightened Def Con from 0.332644 to 0.332644
Heightened Def Con from 0.33672 to 0.33672

Date: Wed May 15 00:52:19 2024
Total elapsed time: 31.316 seconds.

tnom = 27
temp = 27
method = modified trap
totiter = 5887634
traniter = 5887602
tranpoints = 1848439
accept = 1397938
rejected = 450553
matrix size = 36
fillins = 2
solver = Normal
Matrix Compiler1: 1.39 KB object code size  0.3/0.2/[0.1]
Matrix Compiler2: off  [0.2]/0.3/0.2

