Circuit: * C:\Users\dheard\Documents\0001-Arduino\electrolysisMachine\voltage-controlled-current-sink\voltage-controlled-current-source.asc

Direct Newton iteration for .op point succeeded.

Date: Mon May 13 19:08:51 2024
Total elapsed time: 0.086 seconds.

tnom = 27
temp = 27
method = trap
totiter = 171
traniter = 0
tranpoints = 0
accept = 0
rejected = 0
matrix size = 11
fillins = 3
solver = Normal
Avg thread counts: 6.6/0.0/12.0/6.6
Matrix Compiler1:      35 opcodes  0.4/0.3/[0.2]
Matrix Compiler2: off  [0.2]/1.4/1.0

