Circuit: * C:\Users\dheard\Documents\0001-Arduino\electrolysisMachine\voltage-controlled-current-sink\voltage-controlled-current-source-555-chargepump.asc

Limiting rise time of source v3 to 0.0001
Limiting fall time of source v3 to 0.0001
WARNING: Less than two connections to node n001.  This node is used by v2.
Direct Newton iteration for .op point succeeded.

Date: Wed Jun  5 14:07:59 2024
Total elapsed time: 4.393 seconds.

tnom = 27
temp = 27
method = modified trap
totiter = 847260
traniter = 847220
tranpoints = 245751
accept = 193336
rejected = 52415
matrix size = 36
fillins = 4
solver = Normal
Avg thread counts: 1.0/1.0/1.0/1.0
Matrix Compiler1: 1.46 KB object code size  0.4/0.3/[0.2]
Matrix Compiler2: 2.47 KB object code size  0.3/0.5/[0.2]

