Circuit: * C:\Users\dheard\Documents\0001-Arduino\electrolysisMachine\circuit-modelling\2024-11-18-transconductance-amplifier.asc


Date: Mon Nov 18 16:31:50 2024
Total elapsed time: 0.055 seconds.

tnom = 27
temp = 27
method = trap
totiter = 1045
traniter = 0
tranpoints = 0
accept = 0
rejected = 0
matrix size = 7
fillins = 0
solver = Normal
Avg thread counts: 1.9/0.0/2.9/1.9
Matrix Compiler1: 250 bytes object code size  0.2/0.1/[0.1]
Matrix Compiler2: 541 bytes object code size  0.1/0.1/[0.1]

