Circuit: * C:\Users\dheard\Documents\0001-Arduino\electrolysisMachine\circuit-modelling\precision-current-pump-calc\precision-current-pump.asc

Warning: Multiple definitions of model "2scr375p" Type: BJT
Warning: Multiple definitions of model "bc857b" Type: BJT
Warning: Multiple definitions of model "bc847c" Type: BJT
Warning: Multiple definitions of model "bc847b" Type: BJT
Direct Newton iteration failed to find .op point.  (Use ".option noopiter" to skip.)
Starting Gmin stepping
Gmin = 10
Gmin = 1.07374
Gmin = 0.115292
Gmin = 0.0123794
Gmin = 0.00132923
Gmin = 0.000142725
Gmin = 1.5325e-05
Gmin = 1.6455e-06
Gmin = 1.76685e-07
Gmin = 1.89714e-08
Gmin = 2.03704e-09
Gmin = 2.18725e-10
Gmin = 2.34854e-11
Gmin = 2.52173e-12
Gmin = 2.70769e-13
Gmin = 0
Gmin stepping succeeded in finding the operating point.


Date: Wed Sep  4 14:04:45 2024
Total elapsed time: 0.222 seconds.

tnom = 27
temp = 27
method = trap
totiter = 1516
traniter = 0
tranpoints = 0
accept = 0
rejected = 0
matrix size = 32
fillins = 22
solver = Normal
Avg thread counts: 3.4/0.0/2.5/1.6
Matrix Compiler1:     147 opcodes  0.5/0.4/[0.3]
Matrix Compiler2: 3.01 KB object code size  0.3/0.4/[0.3]

